<?xml version="1.0" encoding="UTF-8"?>

<!-- generated on 2024-05-12 00:21:51 by Eclipse SUMO netedit Version 1.19.0
<configuration xmlns:xsi="http://www.w3.org/2001/XMLSchema-instance" xsi:noNamespaceSchemaLocation="http://sumo.dlr.de/xsd/neteditConfiguration.xsd">

    <input>
        <sumo-net-file value="D:\桌面\one_week\绕城（地图）\source.net.xml"/>
    </input>

    <output>
        <output-file value="D:\桌面\one_week\绕城（地图）\source.net.xml"/>
        <output.street-names value="true"/>
    </output>

    <processing>
        <geometry.min-radius.fix.railways value="false"/>
        <geometry.max-grade.fix value="false"/>
        <offset.disable-normalization value="true"/>
        <lefthand value="0"/>
    </processing>

    <junctions>
        <no-turnarounds value="true"/>
        <junctions.corner-detail value="5"/>
        <junctions.limit-turn-speed value="5.50"/>
        <rectangular-lane-cut value="0"/>
    </junctions>

    <pedestrian>
        <walkingareas value="0"/>
    </pedestrian>

</configuration>
-->

<net version="1.16" junctionCornerDetail="5" limitTurnSpeed="5.50" xmlns:xsi="http://www.w3.org/2001/XMLSchema-instance" xsi:noNamespaceSchemaLocation="http://sumo.dlr.de/xsd/net_file.xsd">

    <location netOffset="-396855.93,-3381090.21" convBoundary="0.00,0.00,28198.23,25755.07" origBoundary="103.897318,30.477763,104.244622,30.819821" projParameter="+proj=utm +zone=48 +ellps=WGS84 +datum=WGS84 +units=m +no_defs"/>

    <edge id=":10875198135_0" function="internal">
        <lane id=":10875198135_0_0" index="0" allow="private emergency authority army vip passenger hov taxi bus coach delivery truck trailer motorcycle evehicle custom1 custom2" speed="22.22" length="6.29" shape="26577.94,6490.21 26579.77,6489.85 26581.01,6489.56 26582.22,6489.16 26583.97,6488.50"/>
    </edge>
    <edge id=":10875198161_0" function="internal">
        <lane id=":10875198161_0_0" index="0" allow="private emergency authority army vip passenger hov taxi bus coach delivery truck trailer motorcycle evehicle custom1 custom2" speed="22.22" length="7.99" shape="27078.58,6397.45 27086.32,6395.45"/>
    </edge>
    <edge id=":10875208775_0" function="internal">
        <lane id=":10875208775_0_0" index="0" allow="private emergency authority army vip passenger hov taxi bus coach delivery truck trailer motorcycle evehicle custom1 custom2" speed="22.22" length="7.50" shape="26460.06,6553.57 26458.01,6553.78 26456.61,6553.97 26455.22,6554.24 26453.21,6554.71"/>
        <lane id=":10875208775_0_1" index="1" allow="private emergency authority army vip passenger hov taxi bus coach delivery truck trailer motorcycle evehicle custom1 custom2" speed="22.22" length="7.50" shape="26460.06,6553.57 26457.76,6553.29 26456.23,6552.39 26454.72,6551.58 26452.47,6551.60"/>
    </edge>
    <edge id=":10875208797_0" function="internal">
        <lane id=":10875208797_0_0" index="0" allow="private emergency authority army vip passenger hov taxi bus coach delivery truck trailer motorcycle evehicle custom1 custom2" speed="22.22" length="9.42" shape="27139.11,6435.40 27136.62,6436.30 27135.26,6437.71 27133.95,6439.30 27131.61,6440.75"/>
    </edge>
    <edge id=":1132519869-AddedOffRampNode_0" function="internal">
        <lane id=":1132519869-AddedOffRampNode_0_0" index="0" allow="private emergency authority army vip passenger hov taxi bus coach delivery truck trailer motorcycle evehicle custom1 custom2" speed="22.22" length="0.52" shape="9633.86,1439.20 9633.55,1439.61"/>
    </edge>
    <edge id=":1132519874-AddedOffRampNode_0" function="internal">
        <lane id=":1132519874-AddedOffRampNode_0_0" index="0" allow="private emergency authority army vip passenger hov taxi bus coach delivery truck trailer motorcycle evehicle custom1 custom2" speed="22.22" length="8.40" shape="23676.37,22529.89 23674.74,22528.00 23673.00,22527.24 23671.25,22526.50 23669.54,22524.65"/>
        <lane id=":1132519874-AddedOffRampNode_0_1" index="1" allow="private emergency authority army vip passenger hov taxi bus coach delivery truck trailer motorcycle evehicle custom1 custom2" speed="22.22" length="8.40" shape="23676.37,22529.89 23672.29,22523.01"/>
    </edge>
    <edge id=":1132519875-AddedOnRampNode_0" function="internal">
        <lane id=":1132519875-AddedOnRampNode_0_0" index="0" allow="private emergency authority army vip passenger hov taxi bus coach delivery truck trailer motorcycle evehicle custom1 custom2" speed="22.22" length="8.00" shape="23838.70,21547.50 23844.36,21541.84"/>
    </edge>
    <edge id=":118467650#0-AddedOffRampNode_0" function="internal">
        <lane id=":118467650#0-AddedOffRampNode_0_0" index="0" allow="private emergency authority army vip passenger hov taxi bus coach delivery truck trailer motorcycle evehicle custom1 custom2" speed="22.22" length="8.21" shape="2150.12,6205.77 2150.85,6203.46 2150.97,6201.76 2151.08,6200.06 2151.82,6197.76"/>
        <lane id=":118467650#0-AddedOffRampNode_0_1" index="1" allow="private emergency authority army vip passenger hov taxi bus coach delivery truck trailer motorcycle evehicle custom1 custom2" speed="22.22" length="8.21" shape="2150.12,6205.77 2151.30,6203.68 2152.43,6202.42 2153.55,6201.16 2154.74,6199.08"/>
    </edge>
    <edge id=":132124734#1-AddedOnRampNode_0" function="internal">
        <lane id=":132124734#1-AddedOnRampNode_0_0" index="0" allow="private emergency authority army vip passenger hov taxi bus coach delivery truck trailer motorcycle evehicle custom1 custom2" speed="22.22" length="8.00" shape="26826.51,13123.79 26825.96,13131.77"/>
    </edge>
    <edge id=":132125411#0-AddedOffRampNode_0" function="internal">
        <lane id=":132125411#0-AddedOffRampNode_0_0" index="0" allow="private emergency authority army vip passenger hov taxi bus coach delivery truck trailer motorcycle evehicle custom1 custom2" speed="22.22" length="0.56" shape="26913.65,12356.77 26913.68,12356.93 26913.69,12357.04 26913.69,12357.15 26913.68,12357.32"/>
    </edge>
    <edge id=":132126834#0-AddedOffRampNode_0" function="internal">
        <lane id=":132126834#0-AddedOffRampNode_0_0" index="0" allow="private emergency authority army vip passenger hov taxi bus coach delivery truck trailer motorcycle evehicle custom1 custom2" speed="22.22" length="8.40" shape="26472.79,12742.46 26475.22,12741.82 26476.69,12740.63 26478.16,12739.44 26480.59,12738.80"/>
        <lane id=":132126834#0-AddedOffRampNode_0_1" index="1" allow="private emergency authority army vip passenger hov taxi bus coach delivery truck trailer motorcycle evehicle custom1 custom2" speed="22.22" length="8.40" shape="26472.79,12742.46 26480.77,12742.00"/>
    </edge>
    <edge id=":1332449936_0" function="internal">
        <lane id=":1332449936_0_0" index="0" allow="private emergency authority army vip passenger hov taxi bus coach delivery truck trailer motorcycle evehicle custom1 custom2" speed="22.22" length="19.29" shape="2175.93,6142.56 2183.38,6124.62"/>
        <lane id=":1332449936_0_1" index="1" allow="private emergency authority army vip passenger hov taxi bus coach delivery truck trailer motorcycle evehicle custom1 custom2" speed="22.22" length="19.29" shape="2178.89,6143.78 2186.23,6126.09"/>
    </edge>
    <edge id=":1332449987_0" function="internal">
        <lane id=":1332449987_0_0" index="0" allow="private emergency authority army vip passenger hov taxi bus coach delivery truck trailer motorcycle evehicle custom1 custom2" speed="18.05" length="8.22" shape="2046.61,5609.82 2048.81,5610.81 2050.17,5611.83 2051.54,5612.83 2053.76,5613.77"/>
    </edge>
    <edge id=":145238784-AddedOnRampNode_0" function="internal">
        <lane id=":145238784-AddedOnRampNode_0_0" index="0" allow="private emergency authority army vip passenger hov taxi bus coach delivery truck trailer motorcycle evehicle custom1 custom2" speed="22.22" length="0.10" shape="19282.19,24492.15 19282.10,24492.19"/>
    </edge>
    <edge id=":1454061465_0" function="internal">
        <lane id=":1454061465_0_0" index="0" allow="private emergency authority army vip passenger hov taxi bus coach delivery truck trailer motorcycle evehicle custom1 custom2" speed="22.22" length="8.24" shape="26839.71,13024.79 26838.63,13032.50"/>
        <lane id=":1454061465_0_1" index="1" allow="private emergency authority army vip passenger hov taxi bus coach delivery truck trailer motorcycle evehicle custom1 custom2" speed="22.22" length="8.24" shape="26839.71,13024.79 26838.81,13027.11 26837.49,13028.46 26836.21,13029.81 26835.45,13032.15"/>
    </edge>
    <edge id=":1454075847_0" function="internal">
        <lane id=":1454075847_0_0" index="0" allow="private emergency authority army vip passenger hov taxi bus coach delivery truck trailer motorcycle evehicle custom1 custom2" speed="22.22" length="8.05" shape="26902.52,12420.93 26902.60,12423.17 26903.47,12424.65 26904.44,12426.14 26904.82,12428.42"/>
    </edge>
    <edge id=":1454075880_0" function="internal">
        <lane id=":1454075880_0_0" index="0" allow="private emergency authority army vip passenger hov taxi bus coach delivery truck trailer motorcycle evehicle custom1 custom2" speed="22.22" length="7.88" shape="27118.84,12698.66 27121.02,12698.68 27122.52,12698.65 27124.01,12698.56 27126.19,12698.36"/>
        <lane id=":1454075880_0_1" index="1" allow="private emergency authority army vip passenger hov taxi bus coach delivery truck trailer motorcycle evehicle custom1 custom2" speed="22.22" length="7.88" shape="27118.84,12698.66 27121.18,12699.18 27122.67,12700.26 27124.15,12701.26 27126.49,12701.54"/>
    </edge>
    <edge id=":1469494095_0" function="internal">
        <lane id=":1469494095_0_0" index="0" allow="private emergency authority army vip passenger hov taxi bus coach delivery truck trailer motorcycle evehicle custom1 custom2" speed="39.44" length="0.28" shape="923.23,18101.23 923.22,18100.88"/>
        <lane id=":1469494095_0_1" index="1" allow="private emergency authority army vip passenger hov taxi bus coach delivery truck trailer motorcycle evehicle custom1 custom2" speed="39.44" length="0.28" shape="926.43,18101.10 926.42,18100.82"/>
        <lane id=":1469494095_0_2" index="2" allow="private emergency authority army vip passenger hov taxi bus coach delivery truck trailer motorcycle evehicle custom1 custom2" speed="39.44" length="0.28" shape="929.62,18100.97 929.62,18100.76"/>
    </edge>
    <edge id=":1469494111_0" function="internal">
        <lane id=":1469494111_0_0" index="0" allow="private emergency authority army vip passenger hov taxi bus coach delivery truck trailer motorcycle evehicle custom1 custom2" speed="30.83" length="53.78" shape="961.38,18434.23 968.65,18487.52"/>
    </edge>
    <edge id=":1469494111_1" function="internal">
        <lane id=":1469494111_1_0" index="0" allow="private emergency authority army vip passenger hov taxi bus coach delivery truck trailer motorcycle evehicle custom1 custom2" speed="39.44" length="53.81" shape="961.38,18434.23 965.17,18487.89"/>
        <lane id=":1469494111_1_1" index="1" allow="private emergency authority army vip passenger hov taxi bus coach delivery truck trailer motorcycle evehicle custom1 custom2" speed="39.44" length="53.81" shape="958.19,18434.41 961.97,18488.09"/>
        <lane id=":1469494111_1_2" index="2" allow="private emergency authority army vip passenger hov taxi bus coach delivery truck trailer motorcycle evehicle custom1 custom2" speed="39.44" length="53.81" shape="954.99,18434.59 958.78,18488.30"/>
    </edge>
    <edge id=":1469494116_0" function="internal">
        <lane id=":1469494116_0_0" index="0" allow="private emergency authority army vip passenger hov taxi bus coach delivery truck trailer motorcycle evehicle custom1 custom2" speed="39.44" length="0.28" shape="961.95,18716.67 961.92,18716.33"/>
        <lane id=":1469494116_0_1" index="1" allow="private emergency authority army vip passenger hov taxi bus coach delivery truck trailer motorcycle evehicle custom1 custom2" speed="39.44" length="0.28" shape="965.13,18716.34 965.11,18716.06"/>
        <lane id=":1469494116_0_2" index="2" allow="private emergency authority army vip passenger hov taxi bus coach delivery truck trailer motorcycle evehicle custom1 custom2" speed="39.44" length="0.28" shape="968.32,18716.01 968.30,18715.78"/>
    </edge>
    <edge id=":1469494136_0" function="internal">
        <lane id=":1469494136_0_0" index="0" allow="private emergency authority army vip passenger hov taxi bus coach delivery truck trailer motorcycle evehicle custom1 custom2" speed="30.83" length="23.61" shape="971.63,18825.53 970.46,18817.67 969.17,18811.41 967.94,18806.44 966.95,18802.41"/>
    </edge>
    <edge id=":1469494136_1" function="internal">
        <lane id=":1469494136_1_0" index="0" allow="private emergency authority army vip passenger hov taxi bus coach delivery truck trailer motorcycle evehicle custom1 custom2" speed="39.44" length="23.59" shape="971.63,18825.53 970.63,18801.85"/>
        <lane id=":1469494136_1_1" index="1" allow="private emergency authority army vip passenger hov taxi bus coach delivery truck trailer motorcycle evehicle custom1 custom2" speed="39.44" length="23.59" shape="974.80,18825.16 973.82,18801.59"/>
        <lane id=":1469494136_1_2" index="2" allow="private emergency authority army vip passenger hov taxi bus coach delivery truck trailer motorcycle evehicle custom1 custom2" speed="39.44" length="23.59" shape="977.98,18824.78 977.01,18801.32"/>
    </edge>
    <edge id=":1586707911_0" function="internal">
        <lane id=":1586707911_0_0" index="0" allow="private emergency authority army vip passenger hov taxi bus coach delivery truck trailer motorcycle evehicle custom1 custom2" speed="22.22" length="13.46" shape="19340.71,24418.87 19352.36,24412.12"/>
    </edge>
    <edge id=":1586707920_0" function="internal">
        <lane id=":1586707920_0_0" index="0" allow="private emergency authority army vip passenger hov taxi bus coach delivery truck trailer motorcycle evehicle custom1 custom2" speed="22.22" length="0.40" shape="19370.40,24456.42 19370.29,24456.45 19370.22,24456.48 19370.14,24456.51 19370.03,24456.56"/>
    </edge>
    <edge id=":170304159-AddedOffRampNode_0" function="internal">
        <lane id=":170304159-AddedOffRampNode_0_0" index="0" allow="private emergency authority army vip passenger hov taxi bus coach delivery truck trailer motorcycle evehicle custom1 custom2" speed="22.22" length="8.40" shape="23137.22,2236.98 23134.72,2236.87 23132.96,2237.57 23131.20,2238.27 23128.69,2238.16"/>
        <lane id=":170304159-AddedOffRampNode_0_1" index="1" allow="private emergency authority army vip passenger hov taxi bus coach delivery truck trailer motorcycle evehicle custom1 custom2" speed="22.22" length="8.40" shape="23137.22,2236.98 23129.46,2235.06"/>
    </edge>
    <edge id=":170304167-AddedOffRampNode_0" function="internal">
        <lane id=":170304167-AddedOffRampNode_0_0" index="0" allow="private emergency authority army vip passenger hov taxi bus coach delivery truck trailer motorcycle evehicle custom1 custom2" speed="22.22" length="8.40" shape="22732.61,1977.49 22735.12,1977.31 22736.78,1976.41 22738.45,1975.52 22740.95,1975.33"/>
        <lane id=":170304167-AddedOffRampNode_0_1" index="1" allow="private emergency authority army vip passenger hov taxi bus coach delivery truck trailer motorcycle evehicle custom1 custom2" speed="22.22" length="8.40" shape="22732.61,1977.49 22740.55,1978.51"/>
    </edge>
    <edge id=":181210454#1-AddedOnRampNode_0" function="internal">
        <lane id=":181210454#1-AddedOnRampNode_0_0" index="0" allow="private emergency authority army vip passenger hov taxi bus coach delivery truck trailer motorcycle evehicle custom1 custom2" speed="22.22" length="0.32" shape="2186.23,6212.61 2186.17,6212.69 2186.12,6212.72 2186.06,6212.76 2186.01,6212.84"/>
    </edge>
    <edge id=":181210455#0-AddedOffRampNode_0" function="internal">
        <lane id=":181210455#0-AddedOffRampNode_0_0" index="0" allow="private emergency authority army vip passenger hov taxi bus coach delivery truck trailer motorcycle evehicle custom1 custom2" speed="22.22" length="7.41" shape="2748.24,5533.02 2746.77,5534.61 2745.87,5535.82 2744.92,5536.96 2743.28,5538.34"/>
        <lane id=":181210455#0-AddedOffRampNode_0_1" index="1" allow="private emergency authority army vip passenger hov taxi bus coach delivery truck trailer motorcycle evehicle custom1 custom2" speed="22.22" length="7.41" shape="2748.24,5533.02 2746.46,5534.22 2744.93,5534.53 2743.33,5534.77 2741.38,5535.77"/>
    </edge>
    <edge id=":1814585405_0" function="internal">
        <lane id=":1814585405_0_0" index="0" allow="private emergency authority army vip passenger hov taxi bus coach delivery truck trailer motorcycle evehicle custom1 custom2" speed="22.22" length="7.70" shape="22655.48,2170.83 22655.30,2168.71 22654.35,2167.36 22653.29,2166.01 22652.77,2163.87"/>
    </edge>
    <edge id=":1814585412_0" function="internal">
        <lane id=":1814585412_0_0" index="0" allow="private emergency authority army vip passenger hov taxi bus coach delivery truck trailer motorcycle evehicle custom1 custom2" speed="22.22" length="7.63" shape="23038.87,2217.34 23036.67,2216.80 23035.18,2216.39 23033.70,2215.93 23031.56,2215.19"/>
    </edge>
    <edge id=":1814585415_0" function="internal">
        <lane id=":1814585415_0_0" index="0" allow="private emergency authority army vip passenger hov taxi bus coach delivery truck trailer motorcycle evehicle custom1 custom2" speed="22.22" length="6.90" shape="22784.13,2221.50 22782.33,2222.46 22781.12,2223.16 22779.96,2223.95 22778.29,2225.14"/>
    </edge>
    <edge id=":1814585431_0" function="internal">
        <lane id=":1814585431_0_0" index="0" allow="private emergency authority army vip passenger hov taxi bus coach delivery truck trailer motorcycle evehicle custom1 custom2" speed="30.83" length="11.73" shape="22536.84,1970.42 22534.05,1969.05 22531.80,1968.13 22529.37,1967.26 22525.99,1966.00"/>
    </edge>
    <edge id=":1814585431_1" function="internal">
        <lane id=":1814585431_1_0" index="0" allow="private emergency authority army vip passenger hov taxi bus coach delivery truck trailer motorcycle evehicle custom1 custom2" speed="39.44" length="9.01" shape="22535.81,1966.02 22527.15,1963.01"/>
        <lane id=":1814585431_1_1" index="1" allow="private emergency authority army vip passenger hov taxi bus coach delivery truck trailer motorcycle evehicle custom1 custom2" speed="39.44" length="9.01" shape="22536.83,1962.98 22528.31,1960.03"/>
        <lane id=":1814585431_1_2" index="2" allow="private emergency authority army vip passenger hov taxi bus coach delivery truck trailer motorcycle evehicle custom1 custom2" speed="39.44" length="9.01" shape="22537.85,1959.95 22529.48,1957.05"/>
    </edge>
    <edge id=":1814585442_0" function="internal">
        <lane id=":1814585442_0_0" index="0" allow="private emergency authority army vip passenger hov taxi bus coach delivery truck trailer motorcycle evehicle custom1 custom2" speed="39.44" length="8.21" shape="22804.99,2060.67 22802.65,2060.07 22800.96,2060.03 22799.26,2059.99 22796.93,2059.39"/>
        <lane id=":1814585442_0_1" index="1" allow="private emergency authority army vip passenger hov taxi bus coach delivery truck trailer motorcycle evehicle custom1 custom2" speed="39.44" length="8.21" shape="22804.99,2060.67 22802.83,2059.60 22801.51,2058.53 22800.20,2057.46 22798.04,2056.39"/>
        <lane id=":1814585442_0_2" index="2" allow="private emergency authority army vip passenger hov taxi bus coach delivery truck trailer motorcycle evehicle custom1 custom2" speed="39.44" length="8.21" shape="22806.10,2057.67 22803.94,2056.60 22802.63,2055.53 22801.32,2054.46 22799.16,2053.39"/>
        <lane id=":1814585442_0_3" index="3" allow="private emergency authority army vip passenger hov taxi bus coach delivery truck trailer motorcycle evehicle custom1 custom2" speed="39.44" length="8.21" shape="22807.21,2054.67 22805.05,2053.60 22803.74,2052.53 22802.43,2051.46 22800.27,2050.39"/>
    </edge>
    <edge id=":1814585443_0" function="internal">
        <lane id=":1814585443_0_0" index="0" allow="private emergency authority army vip passenger hov taxi bus coach delivery truck trailer motorcycle evehicle custom1 custom2" speed="22.22" length="7.68" shape="23226.96,2068.68 23226.74,2070.79 23227.41,2072.29 23228.20,2073.81 23228.32,2076.01"/>
    </edge>
    <edge id=":1814585491_0" function="internal">
        <lane id=":1814585491_0_0" index="0" allow="private emergency authority army vip passenger hov taxi bus coach delivery truck trailer motorcycle evehicle custom1 custom2" speed="22.22" length="7.84" shape="22832.35,1986.91 22840.06,1988.30"/>
    </edge>
    <edge id=":1814585515_0" function="internal">
        <lane id=":1814585515_0_0" index="0" allow="private emergency authority army vip passenger hov taxi bus coach delivery truck trailer motorcycle evehicle custom1 custom2" speed="22.22" length="5.92" shape="23106.34,1982.95 23108.04,1982.51 23109.19,1982.15 23110.30,1981.69 23111.89,1980.95"/>
    </edge>
    <edge id=":1814585554_0" function="internal">
        <lane id=":1814585554_0_0" index="0" allow="private emergency authority army vip passenger hov taxi bus coach delivery truck trailer motorcycle evehicle custom1 custom2" speed="39.44" length="7.99" shape="23123.79,2167.06 23126.10,2167.80 23127.80,2167.97 23129.48,2168.19 23131.72,2169.07"/>
        <lane id=":1814585554_0_1" index="1" allow="private emergency authority army vip passenger hov taxi bus coach delivery truck trailer motorcycle evehicle custom1 custom2" speed="39.44" length="7.99" shape="23123.79,2167.06 23125.86,2168.24 23127.06,2169.39 23128.25,2170.59 23130.25,2171.91"/>
        <lane id=":1814585554_0_2" index="2" allow="private emergency authority army vip passenger hov taxi bus coach delivery truck trailer motorcycle evehicle custom1 custom2" speed="39.44" length="7.99" shape="23122.51,2170.00 23124.52,2171.15 23125.69,2172.28 23126.83,2173.46 23128.77,2174.75"/>
        <lane id=":1814585554_0_3" index="3" allow="private emergency authority army vip passenger hov taxi bus coach delivery truck trailer motorcycle evehicle custom1 custom2" speed="39.44" length="7.99" shape="23121.24,2172.94 23123.19,2174.05 23124.31,2175.17 23125.41,2176.33 23127.29,2177.59"/>
    </edge>
    <edge id=":1900833903_0" function="internal">
        <lane id=":1900833903_0_0" index="0" allow="private emergency authority army vip passenger hov taxi bus coach delivery truck trailer motorcycle evehicle custom1 custom2" speed="11.11" length="3.24" shape="13944.00,1289.69 13943.88,1292.92"/>
    </edge>
    <edge id=":1900833903_1" function="internal">
        <lane id=":1900833903_1_0" index="0" allow="private emergency authority army vip passenger hov taxi bus coach delivery truck trailer motorcycle evehicle custom1 custom2" speed="11.11" length="3.58" shape="13940.61,1289.33 13940.68,1292.91"/>
    </edge>
    <edge id=":1916530856_0" function="internal">
        <lane id=":1916530856_0_0" index="0" allow="private emergency authority army vip passenger hov taxi bus coach delivery truck trailer motorcycle evehicle custom1 custom2" speed="18.05" length="16.05" shape="2789.27,5990.72 2792.96,5993.28 2795.56,5994.91 2798.23,5996.44 2802.13,5998.66"/>
        <lane id=":1916530856_0_1" index="1" allow="private emergency authority army vip passenger hov taxi bus coach delivery truck trailer motorcycle evehicle custom1 custom2" speed="18.05" length="16.05" shape="2786.72,5992.84 2790.69,5995.59 2793.47,5997.37 2796.33,5999.03 2800.53,6001.43"/>
        <lane id=":1916530856_0_2" index="2" allow="private emergency authority army vip passenger hov taxi bus coach delivery truck trailer motorcycle evehicle custom1 custom2" speed="18.05" length="16.05" shape="2786.72,5992.84 2790.48,5996.06 2792.67,5998.76 2794.93,6001.34 2798.92,6004.20"/>
    </edge>
    <edge id=":1916530931_0" function="internal">
        <lane id=":1916530931_0_0" index="0" allow="private emergency authority army vip passenger hov taxi bus coach delivery truck trailer motorcycle evehicle custom1 custom2" speed="22.22" length="7.79" shape="2776.92,6027.40 2774.82,6026.51 2773.24,6026.24 2771.64,6026.04 2769.45,6025.34"/>
    </edge>
    <edge id=":1992575938_0" function="internal">
        <lane id=":1992575938_0_0" index="0" allow="private emergency authority army vip passenger hov taxi bus coach delivery truck trailer motorcycle evehicle custom1 custom2" speed="30.83" length="8.34" shape="11985.12,24972.21 11986.07,24969.93 11986.63,24968.33 11987.03,24966.68 11987.48,24964.25"/>
    </edge>
    <edge id=":211217172-AddedOffRampNode_0" function="internal">
        <lane id=":211217172-AddedOffRampNode_0_0" index="0" allow="private emergency authority army vip passenger hov taxi bus coach delivery truck trailer motorcycle evehicle custom1 custom2" speed="22.22" length="3.20" shape="17710.05,968.69 17712.85,967.14"/>
    </edge>
    <edge id=":211217175-AddedOffRampNode_0" function="internal">
        <lane id=":211217175-AddedOffRampNode_0_0" index="0" allow="private emergency authority army vip passenger hov taxi bus coach delivery truck trailer motorcycle evehicle custom1 custom2" speed="22.22" length="1.62" shape="17100.08,1273.17 17100.17,1271.55"/>
    </edge>
    <edge id=":217855067#1-AddedOnRampNode_0" function="internal">
        <lane id=":217855067#1-AddedOnRampNode_0_0" index="0" allow="private emergency authority army vip passenger hov taxi bus coach delivery truck trailer motorcycle evehicle custom1 custom2" speed="22.22" length="1.60" shape="2054.23,22043.49 2052.90,22044.38"/>
    </edge>
    <edge id=":217855121#1-AddedOnRampNode_0" function="internal">
        <lane id=":217855121#1-AddedOnRampNode_0_0" index="0" allow="private emergency authority army vip passenger hov taxi bus coach delivery truck trailer motorcycle evehicle custom1 custom2" speed="22.22" length="4.77" shape="1446.31,21114.88 1445.64,21113.63 1445.15,21112.79 1444.71,21111.93 1444.19,21110.62"/>
    </edge>
    <edge id=":217855143-AddedOffRampNode_0" function="internal">
        <lane id=":217855143-AddedOffRampNode_0_0" index="0" allow="private emergency authority army vip passenger hov taxi bus coach delivery truck trailer motorcycle evehicle custom1 custom2" speed="22.22" length="1.63" shape="1634.48,21376.47 1636.00,21375.87"/>
        <lane id=":217855143-AddedOffRampNode_0_1" index="1" allow="private emergency authority army vip passenger hov taxi bus coach delivery truck trailer motorcycle evehicle custom1 custom2" speed="22.22" length="1.63" shape="1631.79,21378.21 1633.29,21377.57"/>
    </edge>
    <edge id=":217855159-AddedOffRampNode_0" function="internal">
        <lane id=":217855159-AddedOffRampNode_0_0" index="0" allow="private emergency authority army vip passenger hov taxi bus coach delivery truck trailer motorcycle evehicle custom1 custom2" speed="22.22" length="1.61" shape="2131.12,22230.12 2129.74,22230.94"/>
    </edge>
    <edge id=":217855166#0-AddedOffRampNode_0" function="internal">
        <lane id=":217855166#0-AddedOffRampNode_0_0" index="0" allow="private emergency authority army vip passenger hov taxi bus coach delivery truck trailer motorcycle evehicle custom1 custom2" speed="22.22" length="8.40" shape="2153.27,21452.31 2152.05,21454.51 2151.89,21456.39 2151.73,21458.28 2150.51,21460.47"/>
        <lane id=":217855166#0-AddedOffRampNode_0_1" index="1" allow="private emergency authority army vip passenger hov taxi bus coach delivery truck trailer motorcycle evehicle custom1 custom2" speed="22.22" length="8.40" shape="2153.27,21452.31 2148.07,21458.40"/>
    </edge>
    <edge id=":217855173#1-AddedOnRampNode_0" function="internal">
        <lane id=":217855173#1-AddedOnRampNode_0_0" index="0" allow="private emergency authority army vip passenger hov taxi bus coach delivery truck trailer motorcycle evehicle custom1 custom2" speed="22.22" length="8.00" shape="2125.23,21432.36 2132.54,21429.11"/>
    </edge>
    <edge id=":2212307755_0" function="internal">
        <lane id=":2212307755_0_0" index="0" allow="private emergency authority army vip passenger hov taxi bus coach delivery truck trailer motorcycle evehicle custom1 custom2" speed="22.22" length="11.81" shape="17395.44,1167.04 17398.20,1165.32 17400.50,1163.98 17402.72,1162.53 17405.25,1160.51"/>
    </edge>
    <edge id=":2212307775_0" function="internal">
        <lane id=":2212307775_0_0" index="0" allow="private emergency authority army vip passenger hov taxi bus coach delivery truck trailer motorcycle evehicle custom1 custom2" speed="22.22" length="18.23" shape="17843.27,1352.23 17840.27,1355.24 17837.02,1358.85 17833.82,1362.52 17831.00,1365.71"/>
    </edge>
    <edge id=":2212307793_0" function="internal">
        <lane id=":2212307793_0_0" index="0" allow="private emergency authority army vip passenger hov taxi bus coach delivery truck trailer motorcycle evehicle custom1 custom2" speed="22.22" length="10.16" shape="17507.88,1039.42 17509.74,1037.07 17511.13,1035.49 17512.38,1033.83 17513.86,1031.24"/>
    </edge>
    <edge id=":2212307822_0" function="internal">
        <lane id=":2212307822_0_0" index="0" allow="private emergency authority army vip passenger hov taxi bus coach delivery truck trailer motorcycle evehicle custom1 custom2" speed="22.22" length="8.00" shape="17717.03,1694.96 17716.98,1702.96"/>
    </edge>
    <edge id=":2212307826_0" function="internal">
        <lane id=":2212307826_0_0" index="0" allow="private emergency authority army vip passenger hov taxi bus coach delivery truck trailer motorcycle evehicle custom1 custom2" speed="22.22" length="0.22" shape="17967.69,1172.99 17967.75,1173.00 17967.80,1172.99 17967.85,1172.98 17967.91,1172.99"/>
    </edge>
    <edge id=":2271614996_0" function="internal">